# generated using pymatgen
data_Cr2CoO4
_symmetry_space_group_name_H-M   Fd-3m
_cell_length_a   8.49282630
_cell_length_b   8.49282630
_cell_length_c   8.49282630
_cell_angle_alpha   90.00000000
_cell_angle_beta   90.00000000
_cell_angle_gamma   90.00000000
_symmetry_Int_Tables_number   227
_chemical_formula_structural   Cr2CoO4
_chemical_formula_sum   'Cr16 Co8 O32'
_cell_volume   612.57141223
_cell_formula_units_Z   8
loop_
 _symmetry_equiv_pos_site_id
 _symmetry_equiv_pos_as_xyz
  1  'x, y, z'
  2  '-z+3/4, y+1/4, x+3/4'
  3  '-x, y, -z'
  4  'z+3/4, y+1/4, -x+3/4'
  5  'x, -y, -z'
  6  '-z+3/4, -y+1/4, -x+3/4'
  7  '-x+1/2, -y, z+1/2'
  8  'z+3/4, -y+1/4, x+3/4'
  9  'y, z, x'
  10  'y+3/4, x+1/4, -z+3/4'
  11  'y, -z, -x'
  12  'y+3/4, -x+1/4, z+3/4'
  13  '-y, -z, x'
  14  '-y+3/4, -x+1/4, -z+3/4'
  15  '-y, z, -x'
  16  '-y+3/4, x+1/4, z+3/4'
  17  'z, x, y'
  18  'x+3/4, -z+1/4, y+3/4'
  19  '-z, -x+1/2, y+1/2'
  20  '-x+3/4, z+1/4, y+3/4'
  21  '-z, x, -y'
  22  '-x+3/4, -z+1/4, -y+3/4'
  23  'z+1/2, -x+1/2, -y'
  24  'x+3/4, z+1/4, -y+3/4'
  25  '-x+3/4, -y+1/4, -z+3/4'
  26  'z, -y, -x'
  27  'x+3/4, -y+1/4, z+3/4'
  28  '-z, -y, x'
  29  '-x+3/4, y+1/4, z+3/4'
  30  'z, y+1/2, x+1/2'
  31  'x+3/4, y+1/4, -z+3/4'
  32  '-z, y, -x'
  33  '-y+3/4, -z+1/4, -x+3/4'
  34  '-y, -x, z'
  35  '-y+3/4, z+1/4, x+3/4'
  36  '-y, x, -z'
  37  'y+3/4, z+1/4, -x+3/4'
  38  'y+1/2, x+1/2, z'
  39  'y+3/4, -z+1/4, x+3/4'
  40  'y, -x, -z'
  41  '-z+3/4, -x+1/4, -y+3/4'
  42  '-x, z, -y'
  43  'z+3/4, x+1/4, -y+3/4'
  44  'x, -z, -y'
  45  'z+3/4, -x+1/4, y+3/4'
  46  'x+1/2, z, y+1/2'
  47  '-z+3/4, x+1/4, y+3/4'
  48  '-x, -z, y'
  49  'x+1/2, y+1/2, z'
  50  '-z+1/4, y+3/4, x+3/4'
  51  '-x+1/2, y+1/2, -z'
  52  'z+1/4, y+3/4, -x+3/4'
  53  'x+1/2, -y+1/2, -z'
  54  '-z+1/4, -y+3/4, -x+3/4'
  55  '-x, -y+1/2, z+1/2'
  56  'z+1/4, -y+3/4, x+3/4'
  57  'y+1/2, z+1/2, x'
  58  'y+1/4, x+3/4, -z+3/4'
  59  'y+1/2, -z+1/2, -x'
  60  'y+1/4, -x+3/4, z+3/4'
  61  '-y+1/2, -z+1/2, x'
  62  '-y+1/4, -x+3/4, -z+3/4'
  63  '-y+1/2, z+1/2, -x'
  64  '-y+1/4, x+3/4, z+3/4'
  65  'z+1/2, x+1/2, y'
  66  'x+1/4, -z+3/4, y+3/4'
  67  '-z+1/2, -x, y+1/2'
  68  '-x+1/4, z+3/4, y+3/4'
  69  '-z+1/2, x+1/2, -y'
  70  '-x+1/4, -z+3/4, -y+3/4'
  71  'z, -x, -y'
  72  'x+1/4, z+3/4, -y+3/4'
  73  '-x+1/4, -y+3/4, -z+3/4'
  74  'z+1/2, -y+1/2, -x'
  75  'x+1/4, -y+3/4, z+3/4'
  76  '-z+1/2, -y+1/2, x'
  77  '-x+1/4, y+3/4, z+3/4'
  78  'z+1/2, y, x+1/2'
  79  'x+1/4, y+3/4, -z+3/4'
  80  '-z+1/2, y+1/2, -x'
  81  '-y+1/4, -z+3/4, -x+3/4'
  82  '-y+1/2, -x+1/2, z'
  83  '-y+1/4, z+3/4, x+3/4'
  84  '-y+1/2, x+1/2, -z'
  85  'y+1/4, z+3/4, -x+3/4'
  86  'y, x, z'
  87  'y+1/4, -z+3/4, x+3/4'
  88  'y+1/2, -x+1/2, -z'
  89  '-z+1/4, -x+3/4, -y+3/4'
  90  '-x+1/2, z+1/2, -y'
  91  'z+1/4, x+3/4, -y+3/4'
  92  'x+1/2, -z+1/2, -y'
  93  'z+1/4, -x+3/4, y+3/4'
  94  'x, z+1/2, y+1/2'
  95  '-z+1/4, x+3/4, y+3/4'
  96  '-x+1/2, -z+1/2, y'
  97  'x+1/2, y, z+1/2'
  98  '-z+1/4, y+1/4, x+1/4'
  99  '-x+1/2, y, -z+1/2'
  100  'z+1/4, y+1/4, -x+1/4'
  101  'x+1/2, -y, -z+1/2'
  102  '-z+1/4, -y+1/4, -x+1/4'
  103  '-x, -y, z'
  104  'z+1/4, -y+1/4, x+1/4'
  105  'y+1/2, z, x+1/2'
  106  'y+1/4, x+1/4, -z+1/4'
  107  'y+1/2, -z, -x+1/2'
  108  'y+1/4, -x+1/4, z+1/4'
  109  '-y+1/2, -z, x+1/2'
  110  '-y+1/4, -x+1/4, -z+1/4'
  111  '-y+1/2, z, -x+1/2'
  112  '-y+1/4, x+1/4, z+1/4'
  113  'z+1/2, x, y+1/2'
  114  'x+1/4, -z+1/4, y+1/4'
  115  '-z+1/2, -x+1/2, y'
  116  '-x+1/4, z+1/4, y+1/4'
  117  '-z+1/2, x, -y+1/2'
  118  '-x+1/4, -z+1/4, -y+1/4'
  119  'z, -x+1/2, -y+1/2'
  120  'x+1/4, z+1/4, -y+1/4'
  121  '-x+1/4, -y+1/4, -z+1/4'
  122  'z+1/2, -y, -x+1/2'
  123  'x+1/4, -y+1/4, z+1/4'
  124  '-z+1/2, -y, x+1/2'
  125  '-x+1/4, y+1/4, z+1/4'
  126  'z+1/2, y+1/2, x'
  127  'x+1/4, y+1/4, -z+1/4'
  128  '-z+1/2, y, -x+1/2'
  129  '-y+1/4, -z+1/4, -x+1/4'
  130  '-y+1/2, -x, z+1/2'
  131  '-y+1/4, z+1/4, x+1/4'
  132  '-y+1/2, x, -z+1/2'
  133  'y+1/4, z+1/4, -x+1/4'
  134  'y, x+1/2, z+1/2'
  135  'y+1/4, -z+1/4, x+1/4'
  136  'y+1/2, -x, -z+1/2'
  137  '-z+1/4, -x+1/4, -y+1/4'
  138  '-x+1/2, z, -y+1/2'
  139  'z+1/4, x+1/4, -y+1/4'
  140  'x+1/2, -z, -y+1/2'
  141  'z+1/4, -x+1/4, y+1/4'
  142  'x, z, y'
  143  '-z+1/4, x+1/4, y+1/4'
  144  '-x+1/2, -z, y+1/2'
  145  'x, y+1/2, z+1/2'
  146  '-z+3/4, y+3/4, x+1/4'
  147  '-x, y+1/2, -z+1/2'
  148  'z+3/4, y+3/4, -x+1/4'
  149  'x, -y+1/2, -z+1/2'
  150  '-z+3/4, -y+3/4, -x+1/4'
  151  '-x+1/2, -y+1/2, z'
  152  'z+3/4, -y+3/4, x+1/4'
  153  'y, z+1/2, x+1/2'
  154  'y+3/4, x+3/4, -z+1/4'
  155  'y, -z+1/2, -x+1/2'
  156  'y+3/4, -x+3/4, z+1/4'
  157  '-y, -z+1/2, x+1/2'
  158  '-y+3/4, -x+3/4, -z+1/4'
  159  '-y, z+1/2, -x+1/2'
  160  '-y+3/4, x+3/4, z+1/4'
  161  'z, x+1/2, y+1/2'
  162  'x+3/4, -z+3/4, y+1/4'
  163  '-z, -x, y'
  164  '-x+3/4, z+3/4, y+1/4'
  165  '-z, x+1/2, -y+1/2'
  166  '-x+3/4, -z+3/4, -y+1/4'
  167  'z+1/2, -x, -y+1/2'
  168  'x+3/4, z+3/4, -y+1/4'
  169  '-x+3/4, -y+3/4, -z+1/4'
  170  'z, -y+1/2, -x+1/2'
  171  'x+3/4, -y+3/4, z+1/4'
  172  '-z, -y+1/2, x+1/2'
  173  '-x+3/4, y+3/4, z+1/4'
  174  'z, y, x'
  175  'x+3/4, y+3/4, -z+1/4'
  176  '-z, y+1/2, -x+1/2'
  177  '-y+3/4, -z+3/4, -x+1/4'
  178  '-y, -x+1/2, z+1/2'
  179  '-y+3/4, z+3/4, x+1/4'
  180  '-y, x+1/2, -z+1/2'
  181  'y+3/4, z+3/4, -x+1/4'
  182  'y+1/2, x, z+1/2'
  183  'y+3/4, -z+3/4, x+1/4'
  184  'y, -x+1/2, -z+1/2'
  185  '-z+3/4, -x+3/4, -y+1/4'
  186  '-x, z+1/2, -y+1/2'
  187  'z+3/4, x+3/4, -y+1/4'
  188  'x, -z+1/2, -y+1/2'
  189  'z+3/4, -x+3/4, y+1/4'
  190  'x+1/2, z+1/2, y'
  191  '-z+3/4, x+3/4, y+1/4'
  192  '-x, -z+1/2, y+1/2'
loop_
 _atom_site_type_symbol
 _atom_site_label
 _atom_site_symmetry_multiplicity
 _atom_site_fract_x
 _atom_site_fract_y
 _atom_site_fract_z
 _atom_site_occupancy
  Cr  Cr1  16  0.125000  0.125000  0.125000  1
  Co  Co2  8  0.000000  0.000000  0.500000  1
  O  O3  32  0.113727  0.113727  0.886273  1
